16
N         -3.47318       -0.23525       -0.00000
C         -3.41976        1.15499       -0.00000
N         -2.30593        1.84267       -0.00000
C         -1.11584        1.12787       -0.00000
N         -1.14149       -0.22565       -0.00000
C         -2.33082       -0.89063       -0.00000
N          0.01495        1.80638       -0.00000
C          1.19333        1.06733       -0.00000
C          0.02871       -0.94202        0.00000
N          1.23717       -0.23537       -0.00000
N         -2.35154       -2.27911        0.00000
C         -1.20008       -2.90853        0.00000
N          0.03277       -2.24592        0.00000
H         -4.40472        1.72096       -0.00000
H         -1.20097       -4.04901        0.00000
H          2.16517        1.66531       -0.00000
